Version 4
SHEET 1 880 712
WIRE -576 -352 -784 -352
WIRE -528 -352 -576 -352
WIRE -416 -352 -448 -352
WIRE -208 -352 -416 -352
WIRE -784 -288 -784 -352
WIRE -208 -288 -208 -352
WIRE -576 -224 -576 -352
WIRE -416 -224 -416 -352
WIRE -784 -144 -784 -224
WIRE -656 -144 -784 -144
WIRE -208 -144 -208 -224
WIRE -208 -144 -336 -144
WIRE -896 -64 -1024 -64
WIRE -720 -64 -896 -64
WIRE -656 -64 -720 -64
WIRE -144 -64 -336 -64
WIRE -720 16 -720 -64
WIRE -656 16 -720 16
WIRE -144 16 -144 -64
WIRE -144 16 -336 16
WIRE -720 96 -720 16
WIRE -656 96 -720 96
WIRE -256 96 -336 96
WIRE -656 176 -720 176
WIRE -256 176 -256 160
WIRE -256 176 -336 176
WIRE -144 176 -144 16
WIRE -144 176 -256 176
WIRE -48 176 -144 176
WIRE 128 176 -48 176
WIRE 208 176 128 176
WIRE -720 192 -720 176
WIRE -656 256 -768 256
WIRE -256 256 -336 256
WIRE -768 336 -768 256
WIRE -656 336 -768 336
WIRE 128 336 128 256
WIRE 128 336 -336 336
WIRE 128 368 128 336
WIRE -768 416 -768 336
WIRE -736 416 -768 416
WIRE -768 480 -768 416
WIRE -656 496 -688 496
WIRE -288 496 -336 496
WIRE -688 512 -688 496
WIRE -768 624 -768 544
WIRE -688 624 -688 592
WIRE -688 624 -768 624
WIRE -496 624 -688 624
WIRE -352 624 -496 624
WIRE -256 624 -256 256
WIRE -256 624 -352 624
WIRE 128 624 128 448
WIRE 128 624 -256 624
WIRE -352 640 -352 624
WIRE -288 640 -352 640
WIRE -496 672 -496 624
FLAG -1600 -64 0
FLAG -896 0 0
FLAG -720 192 0
FLAG -496 672 0
FLAG -48 240 0
FLAG 656 336 0
FLAG -1600 -144 IN
FLAG -1024 -64 IN
FLAG 208 176 OUT
FLAG 656 256 OUT
SYMBOL PowerProducts\\LT3120 -496 64 R0
SYMATTR InstName U1
SYMBOL ind -544 -336 R270
WINDOW 0 32 56 VTop 2
WINDOW 3 5 56 VBottom 2
SYMATTR InstName L1
SYMATTR Value 3.3µ
SYMBOL cap -800 -288 R0
SYMATTR InstName C1
SYMATTR Value 0.22µ
SYMBOL cap -224 -288 R0
SYMATTR InstName C2
SYMATTR Value 0.22µ
SYMBOL voltage -1600 -160 R0
WINDOW 123 0 0 Left 0
WINDOW 39 0 0 Left 0
SYMATTR InstName Vin
SYMATTR Value 20
SYMBOL cap -912 -64 R0
SYMATTR InstName C3
SYMATTR Value 10µ
SYMBOL res -640 400 R90
WINDOW 0 0 56 VBottom 2
WINDOW 3 32 56 VTop 2
SYMATTR InstName R1
SYMATTR Value 0
SYMBOL cap -784 480 R0
SYMATTR InstName C4
SYMATTR Value 4.7µ
SYMBOL res -704 496 R0
SYMATTR InstName R2
SYMATTR Value 105k
SYMBOL res -304 480 R0
SYMATTR InstName R3
SYMATTR Value 56.2k
SYMBOL cap -304 576 R0
SYMATTR InstName C5
SYMATTR Value 680p
SYMBOL res 112 160 R0
SYMATTR InstName R4
SYMATTR Value 536k
SYMBOL res 112 352 R0
SYMATTR InstName R5
SYMATTR Value 102k
SYMBOL cap -272 96 R0
SYMATTR InstName C6
SYMATTR Value 22n
SYMBOL cap -64 176 R0
SYMATTR InstName C7
SYMATTR Value 150µ
SYMBOL res 640 240 R0
SYMATTR InstName R6
SYMATTR Value 10
TEXT -1634 696 Left 2 !.tran 0 15m 5m startup
